Version 4.1
SHEET 1 880 680
WIRE 400 16 240 16
WIRE 704 16 464 16
WIRE 64 48 -64 48
WIRE -64 96 -64 48
WIRE -48 96 -64 96
WIRE 64 112 64 48
WIRE 64 112 16 112
WIRE 128 112 64 112
WIRE 240 112 240 16
WIRE 240 112 208 112
WIRE 272 112 240 112
WIRE 400 112 352 112
WIRE 560 112 400 112
WIRE -224 128 -272 128
WIRE -112 128 -144 128
WIRE -48 128 -112 128
WIRE 704 128 704 16
WIRE 704 128 624 128
WIRE -272 144 -272 128
WIRE 560 144 512 144
WIRE 400 160 400 112
WIRE -112 176 -112 128
WIRE 512 208 512 144
WIRE 592 208 512 208
WIRE 704 208 704 128
WIRE 704 208 672 208
WIRE 512 240 512 208
WIRE 400 256 400 224
WIRE -272 272 -272 224
WIRE -112 288 -112 240
WIRE 512 352 512 320
FLAG 400 256 0
FLAG 512 352 0
FLAG -112 288 0
FLAG -272 272 0
SYMBOL res 224 96 R90
WINDOW 0 0 56 VBottom 2
WINDOW 3 32 56 VTop 2
SYMATTR InstName R1
SYMATTR Value 1
SYMBOL res 368 96 R90
WINDOW 0 0 56 VBottom 2
WINDOW 3 32 56 VTop 2
SYMATTR InstName R2
SYMATTR Value 1.59
SYMBOL cap 384 160 R0
SYMATTR InstName C1
SYMATTR Value 1
SYMBOL cap 464 0 R90
WINDOW 0 0 32 VBottom 2
WINDOW 3 32 32 VTop 2
SYMATTR InstName C2
SYMATTR Value 0.63
SYMBOL OpAmps\\opamp 592 64 R0
SYMATTR InstName U1
SYMBOL res 496 224 R0
SYMATTR InstName Ra
SYMATTR Value 1
SYMBOL res 688 192 R90
WINDOW 0 0 56 VBottom 2
WINDOW 3 32 56 VTop 2
SYMATTR InstName Rb
SYMATTR Value 0.31
SYMBOL res -128 112 R90
WINDOW 0 0 56 VBottom 2
WINDOW 3 32 56 VTop 2
SYMATTR InstName R3
SYMATTR Value 1
SYMBOL cap -128 176 R0
SYMATTR InstName C3
SYMATTR Value 1
SYMBOL OpAmps\\opamp -16 48 R0
SYMATTR InstName U2
SYMBOL voltage -272 128 R0
WINDOW 123 24 124 Left 2
WINDOW 39 0 0 Left 0
SYMATTR InstName V1
SYMATTR Value ""
SYMATTR Value2 AC 1 0
TEXT 208 312 Left 2 !.lib opamp.sub
TEXT 208 344 Left 2 !.ac dec 1000 1m 1k
